<?xml version="1.0" encoding="UTF-8"?>

<!-- generated on Wed Sep  7 13:58:03 2016 by SUMO netconvert Version 0.25.0
<?xml version="1.0" encoding="UTF-8"?>

<configuration xmlns:xsi="http://www.w3.org/2001/XMLSchema-instance" xsi:noNamespaceSchemaLocation="http://sumo.dlr.de/xsd/netconvertConfiguration.xsd">

    <input>
        <node-files value="road.nod.xml"/>
        <edge-files value="road.edg.xml"/>
        <type-files value="road.typ.xml"/>
    </input>

    <output>
        <output-file value="road.net.xml"/>
    </output>

    <processing>
        <no-turnarounds value="true"/>
    </processing>

</configuration>
-->

<net version="0.25" xmlns:xsi="http://www.w3.org/2001/XMLSchema-instance" xsi:noNamespaceSchemaLocation="http://sumo.dlr.de/xsd/net_file.xsd">

    <location netOffset="0.00,-1000.00" convBoundary="0.00,0.00,4000.00,0.00" origBoundary="0.00,1000.00,4000.00,1000.00" projParameter="!"/>

    <type id="a" priority="3" numLanes="3" speed="13.89"/>

    <edge id="e1" from="n0" to="n1" priority="3" type="a">
        <lane id="e1_0" index="0" speed="13.89" length="4000.00" shape="0.00,-8.25 4000.00,-8.25"/>
        <lane id="e1_1" index="1" speed="13.89" length="4000.00" shape="0.00,-4.95 4000.00,-4.95"/>
        <lane id="e1_2" index="2" speed="13.89" length="4000.00" shape="0.00,-1.65 4000.00,-1.65"/>
    </edge>
    <edge id="e2" from="n1" to="n0" priority="3" type="a">
        <lane id="e2_0" index="0" speed="13.89" length="4000.00" shape="4000.00,8.25 0.00,8.25"/>
        <lane id="e2_1" index="1" speed="13.89" length="4000.00" shape="4000.00,4.95 0.00,4.95"/>
        <lane id="e2_2" index="2" speed="13.89" length="4000.00" shape="4000.00,1.65 0.00,1.65"/>
    </edge>

    <junction id="n0" type="dead_end" x="0.00" y="0.00" incLanes="e2_0 e2_1 e2_2" intLanes="" shape="0.00,-0.05 0.00,-9.85 0.00,9.85 0.00,0.05"/>
    <junction id="n1" type="dead_end" x="4000.00" y="0.00" incLanes="e1_0 e1_1 e1_2" intLanes="" shape="4000.00,0.05 4000.00,9.85 4000.00,-9.85 4000.00,-0.05"/>

</net>
