<?xml version="1.0" encoding="UTF-8"?>
<edges xmlns:xsi="http://www.w3.org/2001/XMLSchema-instance"
 xsi:noNamespaceSchemaLocation="http://sumo.sf.net/xsd/edges_file.xsd">
    <edge id="e1" from="n0" to="n1" type="a"/>
    <edge id="e2" from="n1" to="n0" type="a"/>
</edges>

